
     RDKit          3D

 10 11  0  0  0  0  0  0  0  0999 V2000
   14.9559  -16.7006   -5.6274 O   0  0  0  0  0  0  0  0  0  0  0  0
   15.5060  -17.5277   -6.6283 C   0  0  2  0  0  0  0  0  0  0  0  0
   17.0248  -17.6668   -6.3696 C   0  0  2  0  0  0  0  0  0  0  0  0
   15.4170  -16.8282   -8.0063 C   0  0  0  0  0  0  0  0  0  0  0  0
   16.7575  -16.6278   -8.5732 N   0  0  0  0  0  0  0  0  0  0  0  0
   14.7326  -18.8699   -6.6486 C   0  0  0  0  0  0  0  0  0  0  0  0
   17.7335  -17.2377   -7.6473 C   0  0  2  0  0  0  0  0  0  0  0  0
   17.3952  -17.9257   -8.8942 C   0  0  2  0  0  0  0  0  0  0  0  0
   18.4010  -17.7700   -9.9331 N   0  0  0  0  0  0  0  0  0  0  0  0
   17.5335  -19.0345   -5.8867 C   0  0  0  0  0  0  0  0  0  0  0  0
  2  1  1  0
  3  2  1  0
  4  2  1  0
  5  4  1  0
  2  6  1  6
  7  3  1  0
  7  5  1  6
  8  5  1  0
  8  7  1  0
  8  9  1  6
  3 10  1  6
M  END
